My Name is Muhammad Afaq.
this is practice class.
thanks.
new line.
